@<TRIPOS>MOLECULE
7V7
 54 56 0 0 0
SMALL
GASTEIGER

@<TRIPOS>ATOM
      1 C           0.9390    0.5380    0.6980 C.3     1  UNL1       -0.0302
      2 C           3.7240   -0.3770    0.5550 C.3     1  UNL1        0.0127
      3 C           5.6820    1.1680    0.7600 C.ar    1  UNL1       -0.0584
      4 C           7.8410    0.5670   -0.0840 C.ar    1  UNL1       -0.0617
      5 C          -3.7910    0.6640   -0.0340 C.ar    1  UNL1        0.0366
      6 C          -3.9080    1.6480    0.9390 C.ar    1  UNL1       -0.0403
      7 C          -4.9780    2.5220    0.9110 C.ar    1  UNL1       -0.0600
      8 C          -5.8190    1.4370   -1.0540 C.ar    1  UNL1       -0.0600
      9 C          -2.9060   -1.5270    0.2420 C.2     1  UNL1        0.2198
     10 C          -4.3080   -2.0630    0.3740 C.3     1  UNL1        0.0217
     11 C          -4.2550   -3.5350    0.7880 C.3     1  UNL1       -0.0570
     12 C          -1.3510    0.2800   -0.2620 C.3     1  UNL1        0.0407
     13 C          -0.7320   -0.4880   -1.4330 C.3     1  UNL1        0.0067
     14 C           0.7040   -0.0060   -1.6510 C.3     1  UNL1       -0.0302
     15 C          -0.4900    0.0720    0.9870 C.3     1  UNL1        0.0067
     16 C           2.9030    0.0960   -0.6460 C.3     1  UNL1       -0.0278
     17 C           5.1770   -0.0460    0.3330 C.ar    1  UNL1       -0.0423
     18 C           7.0140    1.4740    0.5510 C.ar    1  UNL1       -0.0615
     19 C           7.3380   -0.6520   -0.5010 C.ar    1  UNL1       -0.0615
     20 C           6.0050   -0.9560   -0.2970 C.ar    1  UNL1       -0.0584
     21 C          -5.9320    2.4160   -0.0850 C.ar    1  UNL1       -0.0616
     22 C          -4.7510    0.5610   -1.0320 C.ar    1  UNL1       -0.0403
     23 N          -2.7060   -0.2190   -0.0110 N.am    1  UNL1       -0.2680
     24 N           1.4870   -0.2270   -0.4290 N.4     1  UNL1        0.2356
     25 O          -1.9580   -2.2730    0.3630 O.2     1  UNL1       -0.2753
     26 H           0.9312    1.5792    0.4516 H       1  UNL1        0.0815
     27 H           1.5468    0.3800    1.5643 H       1  UNL1        0.0815
     28 H           3.3774    0.1150    1.4397 H       1  UNL1        0.0365
     29 H           3.6129   -1.4352    0.6680 H       1  UNL1        0.0365
     30 H           5.0650    1.8456    1.2346 H       1  UNL1        0.0620
     31 H           8.8333    0.7991   -0.2469 H       1  UNL1        0.0618
     32 H          -3.1964    1.7264    1.6823 H       1  UNL1        0.0636
     33 H          -5.0654    3.2539    1.6333 H       1  UNL1        0.0618
     34 H          -6.5333    1.3603   -1.7949 H       1  UNL1        0.0618
     35 H          -4.8134   -1.9747   -0.5650 H       1  UNL1        0.0356
     36 H          -4.8354   -1.5024    1.1173 H       1  UNL1        0.0356
     37 H          -3.7276   -4.0958    0.0448 H       1  UNL1        0.0234
     38 H          -5.2508   -3.9152    0.8818 H       1  UNL1        0.0234
     39 H          -3.7495   -3.6235    1.7269 H       1  UNL1        0.0234
     40 H          -1.3958    1.3225   -0.4988 H       1  UNL1        0.0508
     41 H          -0.7280   -1.5349   -1.2117 H       1  UNL1        0.0335
     42 H          -1.3066   -0.3151   -2.3189 H       1  UNL1        0.0335
     43 H           1.1440   -0.5513   -2.4597 H       1  UNL1        0.0815
     44 H           0.6973    1.0380   -1.8855 H       1  UNL1        0.0815
     45 H          -0.8942    0.6401    1.7987 H       1  UNL1        0.0335
     46 H          -0.4831   -0.9652    1.2496 H       1  UNL1        0.0335
     47 H           3.2495   -0.3959   -1.5308 H       1  UNL1        0.0818
     48 H           3.0140    1.1542   -0.7594 H       1  UNL1        0.0818
     49 H           7.3909    2.3804    0.8694 H       1  UNL1        0.0618
     50 H           7.9578   -1.3347   -0.9645 H       1  UNL1        0.0618
     51 H           5.6280   -1.8625   -0.6151 H       1  UNL1        0.0620
     52 H          -6.7303    3.0697   -0.1046 H       1  UNL1        0.0618
     53 H          -4.6667   -0.1691   -1.7565 H       1  UNL1        0.0636
     54 H           1.4230   -1.2172   -0.1929 H       1  UNL1        0.2033
@<TRIPOS>BOND
     1     4    18   ar
     2     3    18   ar
     3     4    19   ar
     4     3    17   ar
     5    19    20   ar
     6    17    20   ar
     7     2    17    1
     8     2    16    1
     9    16    24    1
    10    14    24    1
    11    13    14    1
    12     1    24    1
    13     1    15    1
    14     9    25    2
    15    12    13    1
    16    12    15    1
    17    12    23    1
    18     9    23   am
    19     9    10    1
    20     5    23    1
    21    10    11    1
    22     5     6   ar
    23     5    22   ar
    24     6     7   ar
    25     8    22   ar
    26     7    21   ar
    27     8    21   ar
    28     1    26    1
    29     1    27    1
    30     2    28    1
    31     2    29    1
    32     3    30    1
    33     4    31    1
    34     6    32    1
    35     7    33    1
    36     8    34    1
    37    10    35    1
    38    10    36    1
    39    11    37    1
    40    11    38    1
    41    11    39    1
    42    12    40    1
    43    13    41    1
    44    13    42    1
    45    14    43    1
    46    14    44    1
    47    15    45    1
    48    15    46    1
    49    16    47    1
    50    16    48    1
    51    18    49    1
    52    19    50    1
    53    20    51    1
    54    21    52    1
    55    22    53    1
    56    24    54    1
